opendss_networks/LV12_248bus/Switches.dss
new line.Switch_114_CLOSED lineCode=ughv_400al_triplex_ug_4w_bundled bus1=B2733 bus2=B141 length=0.00100000000000 units=km switch=y phases=4
new line.Switch_197_CLOSED lineCode=ughv_400al_triplex_ug_4w_bundled bus1=B1359 bus2=B579 length=0.00100000000000 units=km switch=y phases=4
new line.Switch_263_CLOSED lineCode=ughv_400al_triplex_ug_4w_bundled bus1=B1324 bus2=B2920 length=0.00100000000000 units=km switch=y phases=4
! new line.Switch_431_OPEN lineCode=ughv_400al_triplex_ug_4w_bundled bus1=B226 bus2=B2874 length=0.00100000000000 units=km switch=y phases=4
new line.Switch_1393_CLOSED lineCode=ughv_400al_triplex_ug_4w_bundled bus1=B2225 bus2=B2888 length=0.00100000000000 units=km switch=y phases=4
! new line.Switch_1814_OPEN lineCode=ughv_400al_triplex_ug_4w_bundled bus1=B3245 bus2=B1663 length=0.00100000000000 units=km switch=y phases=4
new line.Switch_1916_CLOSED lineCode=ughv_400al_triplex_ug_4w_bundled bus1=B238 bus2=B1122 length=0.00100000000000 units=km switch=y phases=4
new line.Switch_3066_CLOSED lineCode=ughv_400al_triplex_ug_4w_bundled bus1=B2501 bus2=B536 length=0.00100000000000 units=km switch=y phases=4
! new line.Switch_3700_OPEN lineCode=ughv_400al_triplex_ug_4w_bundled bus1=B1419 bus2=B2277 length=0.00100000000000 units=km switch=y phases=4
! new line.Switch_4167_CLOSED lineCode=ughv_400al_triplex_ug_4w_bundled bus1=B2958 bus2=B2744 length=0.00100000000000 units=km switch=y phases=4
new line.Switch_4548_CLOSED lineCode=ughv_400al_triplex_ug_4w_bundled bus1=B3086 bus2=B681 length=0.00100000000000 units=km switch=y phases=4
